Version 4.1
SHEET 1 4592 728
WIRE 2080 -1232 1856 -1232
WIRE 2336 -1232 2272 -1232
WIRE 2464 -1232 2416 -1232
WIRE 2112 -1040 2112 -1056
WIRE 2240 -1040 2240 -1056
WIRE 1856 -928 1856 -1232
WIRE 2080 -928 1856 -928
WIRE 2464 -928 2464 -1232
WIRE 2464 -928 2272 -928
WIRE 2512 -928 2464 -928
WIRE 2656 -928 2592 -928
WIRE 2112 -736 2112 -752
WIRE 1856 -624 1856 -928
WIRE 2080 -624 1856 -624
WIRE 2656 -624 2656 -928
WIRE 2656 -624 2272 -624
WIRE 2720 -624 2656 -624
WIRE 2864 -624 2800 -624
WIRE 2112 -432 2112 -448
WIRE 1856 -320 1856 -624
WIRE 2080 -320 1856 -320
WIRE 2864 -320 2864 -624
WIRE 2864 -320 2272 -320
WIRE 2960 -320 2864 -320
WIRE 3120 -320 3040 -320
WIRE 1184 -272 960 -272
WIRE 1504 -272 1264 -272
WIRE 16 -256 -64 -256
WIRE 192 -240 80 -240
WIRE 256 -240 192 -240
WIRE 416 -240 336 -240
WIRE 496 -240 416 -240
WIRE 656 -240 576 -240
WIRE -64 -224 -64 -256
WIRE 16 -224 -16 -224
WIRE 416 -128 416 -240
WIRE 544 -128 416 -128
WIRE 2112 -128 2112 -144
WIRE 656 -112 656 -240
WIRE 656 -112 608 -112
WIRE 704 -112 656 -112
WIRE 816 -112 704 -112
WIRE 960 -112 960 -272
WIRE 960 -112 896 -112
WIRE 1024 -112 960 -112
WIRE 1152 -112 1088 -112
WIRE 1296 -112 1152 -112
WIRE -16 -96 -16 -224
WIRE 48 -96 -16 -96
WIRE 192 -96 192 -240
WIRE 192 -96 128 -96
WIRE 544 -96 512 -96
WIRE 1504 -96 1504 -272
WIRE 1504 -96 1360 -96
WIRE 1568 -96 1504 -96
WIRE 1696 -96 1568 -96
WIRE 1856 -96 1856 -320
WIRE 1856 -96 1776 -96
WIRE 1952 -96 1856 -96
WIRE 1296 -80 1264 -80
WIRE 3120 -80 3120 -320
WIRE 3120 -80 2016 -80
WIRE 3248 -80 3120 -80
WIRE 3360 -80 3248 -80
WIRE 3520 -80 3440 -80
WIRE 3616 -80 3520 -80
WIRE 3792 -80 3696 -80
WIRE 3984 -80 3792 -80
WIRE -16 -64 -16 -96
WIRE 416 -64 416 -128
WIRE 512 -64 512 -96
WIRE 1152 -64 1152 -112
WIRE 1952 -64 1920 -64
WIRE 4160 -64 4048 -64
WIRE 4240 -64 4160 -64
WIRE 4288 -64 4240 -64
WIRE 960 -48 960 -112
WIRE 3792 -48 3792 -80
WIRE 3984 -48 3936 -48
WIRE 1920 -16 1920 -64
WIRE 4240 16 4240 -64
WIRE 3520 32 3520 -80
WIRE 3568 32 3520 32
WIRE -16 48 -16 16
WIRE 416 48 416 16
WIRE 960 48 960 16
WIRE 1152 48 1152 16
WIRE 1264 48 1264 -80
WIRE 1344 48 1264 48
WIRE 1504 48 1504 -96
WIRE 1504 48 1424 48
WIRE 3792 48 3792 16
WIRE 3792 48 3632 48
WIRE 3568 64 3520 64
WIRE 3936 64 3936 -48
WIRE 4160 64 4160 -64
WIRE 4160 64 3936 64
WIRE 1264 80 1264 48
WIRE 3792 80 3792 48
WIRE 3520 96 3520 64
WIRE 3792 176 3792 144
WIRE 4240 176 4240 96
WIRE 1264 208 1264 160
FLAG -64 -224 0
FLAG 512 -64 0
FLAG -368 -704 0
FLAG 48 -704 0
FLAG -368 -784 VA
IOPIN -368 -784 In
FLAG 48 -784 VB
IOPIN 48 -784 In
FLAG 416 48 VB
IOPIN 416 48 In
FLAG -16 48 VA
IOPIN -16 48 In
FLAG 704 -112 Vout1
IOPIN 704 -112 Out
FLAG 496 -784 +Vcc
IOPIN 496 -784 In
FLAG 784 -784 -Vcc
IOPIN 784 -784 In
FLAG 48 -208 +Vcc
IOPIN 48 -208 In
FLAG 576 -144 +Vcc
IOPIN 576 -144 In
FLAG 48 -272 -Vcc
IOPIN 48 -272 In
FLAG 576 -80 -Vcc
IOPIN 576 -80 In
FLAG 192 -240 Vx
IOPIN 192 -240 Out
FLAG 960 48 0
FLAG 1152 48 0
FLAG 1264 208 0
FLAG 1568 -96 Vout2
IOPIN 1568 -96 Out
FLAG 1328 -64 +Vcc
IOPIN 1328 -64 In
FLAG 1328 -128 -Vcc
IOPIN 1328 -128 In
FLAG 496 -704 0
FLAG 784 -704 0
FLAG 1920 -16 0
FLAG 1728 -1440 0
FLAG 1952 -1440 0
FLAG 1728 -1520 ON
IOPIN 1728 -1520 In
FLAG 1952 -1520 OFF
IOPIN 1952 -1520 In
FLAG 3248 -80 Vout3
IOPIN 3248 -80 Out
FLAG 1984 -48 -Vcc
IOPIN 1984 -48 In
FLAG 1984 -112 +Vcc
IOPIN 1984 -112 In
FLAG 2112 -1040 0
FLAG 2112 -736 0
FLAG 2112 -432 0
FLAG 2112 -128 0
FLAG 2240 -1040 -Vcc
IOPIN 2240 -1040 In
FLAG 2176 -1008 +Vcc
IOPIN 2176 -1008 In
FLAG 2240 -752 -Vcc
IOPIN 2240 -752 In
FLAG 2176 -704 +Vcc
IOPIN 2176 -704 In
FLAG 2240 -448 -Vcc
IOPIN 2240 -448 In
FLAG 2176 -400 +Vcc
IOPIN 2176 -400 In
FLAG 2240 -144 -Vcc
IOPIN 2240 -144 In
FLAG 3520 96 0
FLAG 3792 176 0
FLAG 4240 176 0
FLAG 3600 16 +Vcc
IOPIN 3600 16 In
FLAG 4016 -32 +Vcc
IOPIN 4016 -32 In
FLAG 3600 80 -Vcc
IOPIN 3600 80 In
FLAG 4016 -96 -Vcc
IOPIN 4016 -96 In
FLAG 4288 -64 Vout4
IOPIN 4288 -64 Out
FLAG 3792 48 VOA
IOPIN 3792 48 Out
FLAG 2176 -1312 +Vcc
IOPIN 2176 -1312 In
FLAG 2272 -864 ON
IOPIN 2272 -864 In
FLAG 2272 -560 ON
IOPIN 2272 -560 In
FLAG 2272 -256 OFF
IOPIN 2272 -256 In
FLAG 2272 -1168 ON
IOPIN 2272 -1168 In
SYMBOL OpAmps\\LT1208 48 -176 M180
SYMATTR InstName AO1
SYMBOL res -32 -80 R0
SYMATTR InstName R1
SYMATTR Value 1k
SYMBOL res 240 -224 R270
WINDOW 0 32 56 VTop 2
WINDOW 3 0 56 VBottom 2
SYMATTR InstName R3
SYMATTR Value 1k
SYMBOL res 480 -224 R270
WINDOW 0 32 56 VTop 2
WINDOW 3 0 56 VBottom 2
SYMATTR InstName R4
SYMATTR Value 6.03k
SYMBOL res 400 -80 R0
SYMATTR InstName R5
SYMATTR Value 1k
SYMBOL OpAmps\\LT1208 576 -176 R0
SYMATTR InstName AO2
SYMBOL voltage 496 -800 R0
WINDOW 123 24 44 Left 2
WINDOW 39 0 0 Left 0
SYMATTR InstName V3
SYMATTR Value 15V
SYMBOL voltage 784 -800 R0
SYMATTR InstName V4
SYMATTR Value -15V
SYMBOL res 32 -80 R270
WINDOW 0 32 56 VTop 2
WINDOW 3 0 56 VBottom 2
SYMATTR InstName R2
SYMATTR Value 1k
SYMBOL voltage -368 -800 R0
WINDOW 123 24 44 Left 2
WINDOW 39 0 0 Left 0
SYMATTR Value2 AC 1
SYMATTR InstName V1
SYMATTR Value SINE(0 231.5m 2.1kHz)
SYMBOL voltage 48 -800 R0
WINDOW 123 24 44 Left 2
WINDOW 39 0 0 Left 0
SYMATTR Value2 AC 0
SYMATTR InstName V2
SYMATTR Value SINE(0 -231.5m 2.1kHz)
SYMBOL res 800 -96 R270
WINDOW 0 32 56 VTop 2
WINDOW 3 0 56 VBottom 2
SYMATTR InstName R6
SYMATTR Value 1.5k
SYMBOL cap 976 16 R180
WINDOW 0 24 56 Left 2
WINDOW 3 24 8 Left 2
SYMATTR InstName C1
SYMATTR Value 100n
SYMBOL cap 1024 -96 R270
WINDOW 0 32 32 VTop 2
WINDOW 3 0 32 VBottom 2
SYMATTR InstName C2
SYMATTR Value 100n
SYMBOL res 1136 -80 R0
SYMATTR InstName R7
SYMATTR Value 0.75k
SYMBOL OpAmps\\LT1208 1328 -32 M180
SYMATTR InstName AO3
SYMBOL res 1168 -256 R270
WINDOW 0 32 56 VTop 2
WINDOW 3 0 56 VBottom 2
SYMATTR InstName R8
SYMATTR Value 1.5k
SYMBOL res 1328 64 R270
WINDOW 0 32 56 VTop 2
WINDOW 3 0 56 VBottom 2
SYMATTR InstName R9
SYMATTR Value 4k
SYMBOL res 1280 176 R180
WINDOW 0 36 76 Left 2
WINDOW 3 36 40 Left 2
SYMATTR InstName R10
SYMATTR Value 2k
SYMBOL res 1680 -80 R270
WINDOW 0 32 56 VTop 2
WINDOW 3 0 56 VBottom 2
SYMATTR InstName RG
SYMATTR Value 3k
SYMBOL OpAmps\\LT1208 1984 -144 R0
SYMATTR InstName AO4
SYMBOL res 2944 -304 R270
WINDOW 0 32 56 VTop 2
WINDOW 3 0 56 VBottom 2
SYMATTR InstName RF1
SYMATTR Value 3.8k
SYMBOL res 2704 -608 R270
WINDOW 0 32 56 VTop 2
WINDOW 3 0 56 VBottom 2
SYMATTR InstName RF2
SYMATTR Value 1.6k
SYMBOL res 2496 -912 R270
WINDOW 0 32 56 VTop 2
WINDOW 3 0 56 VBottom 2
SYMATTR InstName RF3
SYMATTR Value 2.2k
SYMBOL res 2320 -1216 R270
WINDOW 0 32 56 VTop 2
WINDOW 3 0 56 VBottom 2
SYMATTR InstName RF4
SYMATTR Value 3.1k
SYMBOL voltage 1728 -1536 R0
WINDOW 123 0 0 Left 0
WINDOW 39 0 0 Left 0
SYMATTR InstName V5
SYMATTR Value 15V
SYMBOL voltage 1952 -1536 R0
SYMATTR InstName V6
SYMATTR Value 0V
SYMBOL res 3344 -64 R270
WINDOW 0 32 56 VTop 2
WINDOW 3 0 56 VBottom 2
SYMATTR InstName R11
SYMATTR Value 1k
SYMBOL OpAmps\\LT1208 3600 -16 R0
SYMATTR InstName AO5
SYMBOL OpAmps\\LT1208 4016 0 M180
SYMATTR InstName AO6
SYMBOL res 3600 -64 R270
WINDOW 0 32 56 VTop 2
WINDOW 3 0 56 VBottom 2
SYMATTR InstName R12
SYMATTR Value 1k
SYMBOL res 4224 0 R0
SYMATTR InstName RL
SYMATTR Value 500
SYMBOL diode 3808 16 R180
WINDOW 0 24 64 Left 2
WINDOW 3 24 0 Left 2
SYMATTR InstName D1
SYMATTR Value 1N4148
SYMBOL diode 3808 144 R180
WINDOW 0 24 64 Left 2
WINDOW 3 24 0 Left 2
SYMATTR InstName D2
SYMATTR Value 1N4148
SYMBOL Switches\\ADG1311 2176 -1184 M0
SYMATTR InstName SW1
SYMBOL Switches\\ADG1311 2176 -880 M0
SYMATTR InstName SW2
SYMBOL Switches\\ADG1311 2176 -576 M0
SYMATTR InstName SW3
SYMBOL Switches\\ADG1311 2176 -272 M0
SYMATTR InstName SW4
TEXT -944 -344 Left 2 !;R1=R5
TEXT -944 -368 Left 2 !;R2=R3
TEXT -944 -752 Left 2 !.ac dec 100 1 100Meg
TEXT -944 -720 Left 2 ;.tran 10m
TEXT -944 -432 Left 2 !;Amin=164mV (82mV - (-82mV))
TEXT -944 -408 Left 2 !;Amax=463mV (231.5mv - (-231.5mV))
TEXT -944 -688 Left 2 ;.op
TEXT -944 -656 Left 2 !.four 2.1kHz 10 V(Vout1)
TEXT -944 -296 Left 2 !;Av etaj I = R4/R1
TEXT -952 -136 Left 2 !;raspuns la treapta: \n;VA -> PULSE(0 231.5m 0.5m 1n 1n 1m 2m 5)\n;VB -> PULSE(0 -231.5m 0.5m 1n 1n 1m 2m 5)
TEXT -960 0 Left 2 !;SR (panta intre 10% si 90% din amplitudine Vout cand aplicam treapta):\n;10% -> 278mV\n;90% -> 2.5V\n;=>SR =24V/us\n;fara oscilatii
TEXT -968 168 Left 2 !;pentru liniaritate etaj I (semnal sinus la intrare):\n;VA -> SINE(0 231.5m 2.1kHz)\n;VB -> SINE(0 -231.5m 2.1kHz)\n;THD -> 0.06% (fin=2.1kHz)
TEXT -944 -624 Left 2 !.four 2.1kHz 10 V(Vout2)
TEXT -944 -264 Left 2 !;BW=3.6MHz\n;fin_max=2.1kHz (frecventa centrala FTB)
TEXT 800 -544 Left 2 !;R6=R8\n;R7=R8/2\n;C1=C2
TEXT -944 -456 Left 2 !;Rin_min=1kohm
TEXT 1000 -584 Left 2 !;Rin_min=1kohm
TEXT 1000 -552 Left 2 !;f_centrala=2.1kHz\n;defazaj 0 grade la f_centrala\n;H0=1 (castig in banda de trecere) pt. Q=0.707\n;Amax(la f_centrala)-3dB (in ambele parti) = banda (3kHz)
TEXT -944 -592 Left 2 !.four 2.1kHz 10 V(Vout3)
TEXT 2176 -1488 Left 2 !;liniaritate (THD):\n;la fin_max pt. ampl_in_min*castig_max_PGA: THD -> 0.06% (<1%)\n;la fin_max pt. ampl_in_max*castig_min_PGA: THD -> 0.06% (<1%)
TEXT 2184 -1744 Left 2 !;2dB:3dB:11dB (Avmin:pas de 3(rezolutie):Avmax) - 4 pasi\n;2dB->5dB->8dB->11dB (Av dB) <=> 1.25V/V, 1.78V/V, 2.51V/V, 3.55V/V (Av liniar)\n;castig minim PGA (amplitudine max Vin): SW4 activ => Av=1.25\n;castig maxim PGA (amplitudine min Vin): SW1 activ => Av=3.55
TEXT 2184 -1600 Left 2 !;Rin_min=RG=3k
TEXT 1000 -432 Left 2 !;banda si H0: ac-> V(Vout2)/V(Vout1)
TEXT 2184 -1552 Left 2 !;banda: ac-> V(Vout3)/V(Vout2)
TEXT 3016 -1584 Left 2 !;SW=ON <=> IN=0\n;SW=OFF <=> IN=VCC
TEXT -944 -776 Left 2 ;.dc V3 -15 15 1
