Version 4.1
SHEET 1 1976 796
WIRE 64 -496 -160 -496
WIRE 320 -496 256 -496
WIRE 448 -496 400 -496
WIRE 96 -304 96 -320
WIRE 224 -304 224 -320
WIRE -160 -192 -160 -496
WIRE 64 -192 -160 -192
WIRE 448 -192 448 -496
WIRE 448 -192 256 -192
WIRE 496 -192 448 -192
WIRE 640 -192 576 -192
WIRE 96 0 96 -16
WIRE -160 112 -160 -192
WIRE 64 112 -160 112
WIRE 640 112 640 -192
WIRE 640 112 256 112
WIRE 704 112 640 112
WIRE 848 112 784 112
WIRE 96 304 96 288
WIRE -160 416 -160 112
WIRE 64 416 -160 416
WIRE 848 416 848 112
WIRE 848 416 256 416
WIRE 944 416 848 416
WIRE 1104 416 1024 416
WIRE 96 608 96 592
WIRE -320 640 -448 640
WIRE -160 640 -160 416
WIRE -160 640 -240 640
WIRE -64 640 -160 640
WIRE 1104 656 1104 416
WIRE 1104 656 0 656
WIRE 1232 656 1104 656
WIRE -64 672 -96 672
WIRE -96 720 -96 672
FLAG -448 640 Vout2
IOPIN -448 640 In
FLAG -96 720 0
FLAG 1232 656 Vout3
IOPIN 1232 656 Out
FLAG -32 688 -Vcc
IOPIN -32 688 In
FLAG -32 624 +Vcc
IOPIN -32 624 In
FLAG 96 -304 0
FLAG 96 0 0
FLAG 96 304 0
FLAG 96 608 0
FLAG 224 -304 -Vcc
IOPIN 224 -304 In
FLAG 160 -272 +Vcc
IOPIN 160 -272 In
FLAG 224 -16 -Vcc
IOPIN 224 -16 In
FLAG 160 32 +Vcc
IOPIN 160 32 In
FLAG 224 288 -Vcc
IOPIN 224 288 In
FLAG 160 336 +Vcc
IOPIN 160 336 In
FLAG 224 592 -Vcc
IOPIN 224 592 In
FLAG 160 -576 +Vcc
IOPIN 160 -576 In
FLAG 880 -64 0
FLAG 1104 -64 0
FLAG 880 -144 ON
IOPIN 880 -144 In
FLAG 1104 -144 OFF
IOPIN 1104 -144 In
FLAG 688 -400 Vout2
IOPIN 688 -400 In
FLAG 688 -320 0
FLAG 1024 -400 +Vcc
IOPIN 1024 -400 In
FLAG 1248 -400 -Vcc
IOPIN 1248 -400 In
FLAG 1024 -320 0
FLAG 1248 -320 0
FLAG 256 -128 ON
IOPIN 256 -128 In
FLAG 256 176 ON
IOPIN 256 176 In
FLAG 256 -432 OFF
IOPIN 256 -432 In
FLAG 256 480 ON
IOPIN 256 480 In
SYMBOL res -336 656 R270
WINDOW 0 32 56 VTop 2
WINDOW 3 0 56 VBottom 2
SYMATTR InstName RG1
SYMATTR Value 3k
SYMBOL OpAmps\\LT1208 -32 592 R0
SYMATTR InstName AO1
SYMBOL res 928 432 R270
WINDOW 0 32 56 VTop 2
WINDOW 3 0 56 VBottom 2
SYMATTR InstName RF1
SYMATTR Value 3.8k
SYMBOL res 688 128 R270
WINDOW 0 32 56 VTop 2
WINDOW 3 0 56 VBottom 2
SYMATTR InstName RF2
SYMATTR Value 1.6k
SYMBOL res 480 -176 R270
WINDOW 0 32 56 VTop 2
WINDOW 3 0 56 VBottom 2
SYMATTR InstName RF3
SYMATTR Value 2.2k
SYMBOL res 304 -480 R270
WINDOW 0 32 56 VTop 2
WINDOW 3 0 56 VBottom 2
SYMATTR InstName RF4
SYMATTR Value 3.1k
SYMBOL Switches\\ADG1311 160 -448 M0
SYMATTR InstName SW1
SYMBOL Switches\\ADG1311 160 -144 M0
SYMATTR InstName SW2
SYMBOL Switches\\ADG1311 160 160 M0
SYMATTR InstName SW3
SYMBOL Switches\\ADG1311 160 464 M0
SYMATTR InstName SW4
SYMBOL voltage 880 -160 R0
WINDOW 123 0 0 Left 0
WINDOW 39 0 0 Left 0
SYMATTR InstName V1
SYMATTR Value 15V
SYMBOL voltage 1104 -160 R0
SYMATTR InstName V2
SYMATTR Value 0V
SYMBOL voltage 688 -416 R0
WINDOW 123 24 44 Left 2
WINDOW 39 0 0 Left 0
SYMATTR Value2 AC 1
SYMATTR InstName V3
SYMATTR Value SINE(0 980m 2.1k)
SYMBOL voltage 1024 -416 R0
WINDOW 123 24 44 Left 2
WINDOW 39 0 0 Left 0
SYMATTR InstName V4
SYMATTR Value 15V
SYMBOL voltage 1248 -416 R0
SYMATTR InstName V5
SYMATTR Value -15V
TEXT -720 -832 Left 2 ;.ac dec 100 1 100Meg
TEXT -720 -800 Left 2 !.tran 10m
TEXT -720 -768 Left 2 ;.op
TEXT -720 -736 Left 2 !.four 2.1kHz 10 V(Vout3)
TEXT -128 -864 Left 2 !;liniaritate (THD):\n;la fin_max pt. ampl_in_min*castig_max_PGA: THD -> 0.06% (<1%)\n;la fin_max pt. ampl_in_max*castig_min_PGA: THD -> 0.06% (<1%)
TEXT -120 -1120 Left 2 !;2dB:3dB:11dB (Avmin:pas de 3(rezolutie):Avmax) - 4 pasi\n;2dB->5dB->8dB->11dB (Av dB) <=> 1.25V/V, 1.78V/V, 2.51V/V, 3.55V/V (Av liniar)\n;castig minim PGA (amplitudine max Vin): SW1 activ => Av=1.25\n;castig maxim PGA (amplitudine min Vin): SW4 activ => Av=3.55
TEXT -120 -976 Left 2 !;Rin_min=RG=3k
TEXT -120 -928 Left 2 !;banda: ac-> V(Vout3)/V(Vout2)
TEXT 712 -960 Left 2 !;SW=ON <=> IN=0\n;SW=OFF <=> IN=VCC
